/*--------------------------------*- C++ -*----------------------------------*\
| =========                 |                                                 |
| \\      /  F ield         | foam-extend: Open Source CFD                    |
|  \\    /   O peration     | Version:     4.1                                |
|   \\  /    A nd           | Web:         http://www.foam-extend.org         |
|    \\/     M anipulation  |                                                 |
\*---------------------------------------------------------------------------*/
FoamFile
{
    version     2.0;
    format      binary;
    class       dictionary;
    location    "constant";
    object      chemistryProperties;
}
// * * * * * * * * * * * * * * * * * * * * * * * * * * * * * * * * * * * * * //

psiChemistryModel  LBODEChemistryModel<gasThermoPhysics>;

Treact 0;

refmapping
{
    active          false;
    mixtureFractionProperties
    {
        oxidizerMassFractions
        {
            N2              0.77;
            O2              0.23;
        }
        fuelMassFractions
        {
            NC12H26           1;
        }
        #include "$FOAM_CASE/constant/foam/thermo.foam"
    }
    tolerance       0.0001;
}

chemistry           on;

chemistrySolver     ode;

initialChemicalTimeStep 1e-07;

turbulentReaction   on;

sequentialCoeffs
{
    cTauChem        0.001;
}

EulerImplicitCoeffs
{
    cTauChem        0.05;
    equilibriumRateLimiter off;
}

odeCoeffs
{
    ODESolver       SIBS;
    eps             0.05;
    scale           1;
}

Cmix            Cmix [ 0 0 0 0 0 0 0 ] 0.1;

loadbalancing
{
	active	true;
	log	    true;
}

// ************************************************************************* //
